/*--------------------------------*- C++ -*----------------------------------*\
| =========                 |                                                 |
| \\      /  F ield         | OpenFOAM: The Open Source CFD Toolbox           |
|  \\    /   O peration     | Version:  2.3.1                                 |
|   \\  /    A nd           | Web:      www.OpenFOAM.org                      |
|    \\/     M anipulation  |                                                 |
\*---------------------------------------------------------------------------*/
FoamFile
{
    version     2.0;
    format      ascii;
    class       extendedFeatureEdgeMesh;
    location    "constant/extendedFeatureEdgeMesh";
    object      SmoothL.extendedFeatureEdgeMesh;
}
// * * * * * * * * * * * * * * * * * * * * * * * * * * * * * * * * * * * * * //

// points

22
(
(14.064 0 -2.296)
(14.064 1.7 -2.448)
(14.064 0 -2.448)
(14.064 1.7 -2.296)
(43.313 0 -1.001)
(43.313 1.7 -1.001)
(43.313 0 -2.448)
(43.313 1.7 -2.448)
(17.724 0 -2.296)
(17.724 1.7 -2.296)
(21.381 0 -2.118)
(21.381 1.7 -2.118)
(25.034 0 -2.016)
(25.034 1.7 -2.016)
(28.688 0 -1.915)
(28.688 1.7 -1.915)
(32.339 0 -1.611)
(32.339 1.7 -1.611)
(35.996 0 -1.306)
(35.996 1.7 -1.306)
(39.655 0 -1.153)
(39.655 1.7 -1.153)
)

// edges

26
(
(1 2)
(2 0)
(0 3)
(3 1)
(0 8)
(9 3)
(8 10)
(11 9)
(10 12)
(13 11)
(12 14)
(15 13)
(14 16)
(17 15)
(16 18)
(19 17)
(18 20)
(21 19)
(20 4)
(4 5)
(5 21)
(4 6)
(6 7)
(7 5)
(1 7)
(6 2)
)

// concaveStart mixedStart nonFeatureStart
8 8 8
// internalStart flatStart openStart multipleStart
26 26 26 26
// normals

40
(
(-1 0 0)
(0 0 -1)
(-0 -1 0)
(-1 0 0)
(0 0 1)
(0 1 0)
(0 -0 1)
(-0.0486162 0 0.998818)
(0 -1 0)
(-0.0486162 0 0.998818)
(0 1 0)
(-0.0279114 0 0.99961)
(0 -1 0)
(-0.0279114 0 0.99961)
(0 1 0)
(-0.0276304 0 0.999618)
(0 -1 0)
(-0.0276304 0 0.999618)
(0 1 0)
(-0.0829777 0 0.996551)
(0 -1 0)
(-0.0829777 0 0.996551)
(0 1 0)
(-0.0831132 0 0.99654)
(0 -1 0)
(-0.0831132 0 0.99654)
(0 1 0)
(-0.0417782 0 0.999127)
(0 -1 0)
(-0.0417782 0 0.999127)
(0 1 0)
(-0.0415169 0 0.999138)
(0 -1 -0)
(-0.0415169 0 0.999138)
(1 0 0)
(0 1 0)
(1 0 0)
(0 0 -1)
(0 1 0)
(0 -1 0)
)

// normal volume types

40
(
0
0
0
0
0
0
0
0
0
0
0
0
0
0
0
0
0
0
0
0
0
0
0
0
0
0
0
0
0
0
0
0
0
0
0
0
0
0
0
0
)

// normalDirections

26
(
2(1 -1)
2(1 -1)
2(1 -1)
2(1 -1)
2(1 -1)
2(1 -1)
2(1 -1)
2(1 -1)
2(1 -1)
2(1 -1)
2(1 -1)
2(1 -1)
2(1 -1)
2(1 -1)
2(1 -1)
2(1 -1)
2(1 -1)
2(1 -1)
2(1 -1)
2(1 -1)
2(1 -1)
2(1 -1)
2(1 -1)
2(1 -1)
2(1 -1)
2(1 -1)
)

// edgeNormals

26
(
2(0 1)
2(0 2)
2(3 4)
2(3 5)
2(4 2)
2(6 5)
2(7 8)
2(9 10)
2(11 12)
2(13 14)
2(15 16)
2(17 18)
2(19 20)
2(21 22)
2(23 24)
2(25 26)
2(27 28)
2(29 30)
2(31 32)
2(33 34)
2(33 35)
2(34 32)
2(36 37)
2(36 35)
2(37 38)
2(1 39)
)

// featurePointNormals

8
(
3(0 2 4)
3(0 1 5)
3(0 1 2)
3(3 4 5)
3(31 32 34)
3(33 34 35)
3(34 32 37)
3(36 37 35)
)

// featurePointEdges

8
(
3(2 4 1)
3(3 24 0)
3(0 25 1)
3(2 5 3)
3(19 21 18)
3(19 23 20)
3(22 25 21)
3(22 24 23)
)

// regionEdges
0()


// ************************************************************************* //
