/*--------------------------------*- C++ -*----------------------------------*\
| =========                 |                                                 |
| \\      /  F ield         | OpenFOAM: The Open Source CFD Toolbox           |
|  \\    /   O peration     | Version:  2.3.1                                 |
|   \\  /    A nd           | Web:      www.OpenFOAM.org                      |
|    \\/     M anipulation  |                                                 |
\*---------------------------------------------------------------------------*/
FoamFile
{
    version     2.0;
    format      ascii;
    class       volScalarField;
    location    "0";
    object      p;
}
// * * * * * * * * * * * * * * * * * * * * * * * * * * * * * * * * * * * * * //

dimensions      [1 -1 -2 0 0 0 0];

internalField   uniform 0;

boundaryField
{
    inlet
    {
        type            zeroGradient;
    }
	backWall
    {
        type            fixedFluxPressure;
        gradient        uniform 0;
        value           uniform 0;
    }
    SmoothL
    {
        type            fixedFluxPressure;
        gradient        uniform 0;
        value           uniform 0;
    }
	SmoothR
    {
        type            fixedFluxPressure;
        gradient        uniform 0;
        value           uniform 0;
    }
	bottom1
    {
        type            fixedFluxPressure;
        gradient        uniform 0;
        value           uniform 0;
    }
    atmosphere
    {
        type            totalPressure;
        rho             rho;
        psi             none;
        gamma           1;
        U               U;
        p0              uniform 0;
        value           uniform 0;
    }
    sideWallL
    {
        type            empty;//cyclic;
    }
	sideWallR
    {
        type            empty;//cyclic;
    }

}


// ************************************************************************* //
