FoamFile
{
    version         2.0;
    format          ascii;

    root            "";
    case            "";
    instance        "system";
    local           "";

    class           dictionary;
    object          funkySetFieldsDict;
}

// * * * * * * * * * * * * * * * * * * * * * * * * * * * * * * * * * * * * * //
expressions
(

  alpha
  {
    field alpha;
    keepPatches true;
    //expression "0.5*0.61*(1+tanh(240*(-3.5-pos().z))";//barsed -1.001*240 = 
    expression "0.5*0.61*(1+tanh(-1201.2-1200*pos().z))";
    condition  "(pos().x<46.3925) && (pos().x>=43.8925)";
  }

  water
  {
    field alpha1;
    keepPatches true;
    expression "alpha1-alpha";
  }

  gamma
  {
    field gamma;
    keepPatches true;
    expression "1-alpha1-alpha";
  }

);
