/*--------------------------------*- C++ -*----------------------------------*\
|       o          |                                                          |
|    o     o       | HELYX-OS                                                  |
|   o   O   o      | Version: v2.4.0                                           |
|    o     o       | Web:     http://www.engys.com                            |
|       o          |                                                          |
\*---------------------------------------------------------------------------*/
FoamFile
{
    version 2.0;
    format ascii;
    class dictionary;
    location system;
    object snappyHexMeshDict;
}
////////////////////////////////////////////////////////////////////////////////
    castellatedMesh true;
    snap true;       // snap back to surface?>
    addLayers false;//true; // add viscous layer?
///////////////////////////////////////////////////////////////////////
    geometry
    {
        SmoothL.stl
        {
            type triSurfaceMesh;
            name SmoothL;
            appendRegionName true;
        }
        SmoothR.stl
        {
            type triSurfaceMesh;
            name SmoothR;
            appendRegionName true;
        }

        refinementBox1        
		{
        type searchableBox;
		min ( 43.4925 0   -1.105);
                max ( 46.7925 1.7 -0.801);		}


    }
///////////////////////////////////////////////////////////
    castellatedMeshControls
    {
        features
        (
    	{
	    file "SmoothL.eMesh";
	    level 2;
     	}        
        {
        file "SmoothR.eMesh";
        level 2;
        }
	);
        refinementSurfaces
        {
            SmoothL
            {
                level ( 1 2 );
            }
            SmoothR
            {
                level ( 1 2 );
            }

        }
        refinementRegions
        {

            refinementBox1
            {
            mode inside;
            levels ((1E15 3));
            }


        }
        locationInMesh ( 0 0 0);
        maxLocalCells  100000000; // max cells per CPU core --> 1 million
        maxGlobalCells 100000000;
        minRefinementCells 0;
        nCellsBetweenLevels 2;
        resolveFeatureAngle 30;
        allowFreeStandingZoneFaces true;
        planarAngle 30;
        maxLoadUnbalance 0.10;
    }

    snapControls
    {
        nSolveIter 30;
        nSmoothPatch 3;
        tolerance 2.0;
        nRelaxIter 5;
        nFeatureSnapIter 10;
        implicitFeatureSnap false;
        explicitFeatureSnap true;
        multiRegionFeatureSnap false;
    }
    addLayersControls
    {
        layers
        {
            SmoothL
            {
                nSurfaceLayers 3; // number of layers
                //expansionRatio 1.25;
                //finalLayerThickness 0.4;
            }
            SmoothR
            {
                nSurfaceLayers 3; // number of layers
                //expansionRatio 1.25;
                //finalLayerThickness 0.4;
            }
            

        }

        relativeSizes true;
        expansionRatio 1.5; // height of the layer
        finalLayerThickness 1; // height of last layer compared to adjacent cell
        minThickness 0.25;
        nGrow 0;
        featureAngle 130;
        slipFeatureAngle 30;
        nRelaxIter 5;
        nSmoothSurfaceNormals 1;
        nSmoothNormals 3;
        nSmoothThickness 10;
        maxFaceThicknessRatio 0.5;
        maxThicknessToMedialRatio 0.3;
        minMedialAxisAngle 90;
        nBufferCellsNoExtrude 0;
        nLayerIter 50;
        nRelaxedIter 20;
        writeVTK false;
        noErrors false;
        layerRecovery 1;
        growZoneLayers false;
        projectGrownUp 0.0;
    }

    meshQualityControls
    {
        maxNonOrtho 65;
        maxBoundarySkewness 20;
        maxInternalSkewness 4;
        maxConcave 80;
        minFlatness 0.5;
        minVol 1.00E-13;
        minTetQuality 1e-15;
        minArea -1;
        minTwist 0.02;
        minDeterminant 0.001;
        minFaceWeight 0.05;
        minVolRatio 0.01;
        minTriangleTwist -1;
        nSmoothScale 4;
        errorReduction 0.75;
        relaxed
        {
            maxNonOrtho 75;
        }

    }

    debug 0;
    mergeTolerance 1E-6;
    autoBlockMesh false;
